PROTO-ONCOGENE TYROSINE-PROTEIN KINASE ABL
     RDKit          3D

 74 82  0  0  0  0  0  0  0  0999 V2000
   11.8790   62.2720   12.5700 C   0  0  0  0  0  0  0  0  0  0  0  0
   13.0020   61.4290   12.9100 C   0  0  0  0  0  0  0  0  0  0  0  0
   13.0970   60.0700   12.3920 C   0  0  0  0  0  0  0  0  0  0  0  0
   12.0310   59.5910   11.5250 C   0  0  0  0  0  0  0  0  0  0  0  0
   10.9610   60.4250   11.2160 N   0  0  0  0  0  0  0  0  0  0  0  0
   10.8580   61.7340   11.7100 C   0  0  0  0  0  0  0  0  0  0  0  0
   14.2380   59.1550   12.7120 C   0  0  0  0  0  0  0  0  0  0  0  0
   15.4330   59.5790   13.3830 C   0  0  0  0  0  0  0  0  0  0  0  0
   16.4280   58.6030   13.6150 C   0  0  0  0  0  0  0  0  0  0  0  0
   16.2320   57.3030   13.2020 N   0  0  0  0  0  0  0  0  0  0  0  0
   15.0670   56.9270   12.5590 C   0  0  0  0  0  0  0  0  0  0  0  0
   14.1010   57.8400   12.3270 N   0  0  0  0  0  0  0  0  0  0  0  0
   14.8520   55.6270   12.1280 N   0  0  0  0  0  0  0  0  0  0  0  0
   15.8220   54.6410   12.3220 C   0  0  0  0  0  0  0  0  0  0  0  0
   16.9500   54.5020   11.3930 C   0  0  0  0  0  0  0  0  0  0  0  0
   17.9150   53.4710   11.6480 C   0  0  0  0  0  0  0  0  0  0  0  0
   17.7740   52.5970   12.7860 C   0  0  0  0  0  0  0  0  0  0  0  0
   16.6780   52.7270   13.6880 C   0  0  0  0  0  0  0  0  0  0  0  0
   15.6980   53.7720   13.4360 C   0  0  0  0  0  0  0  0  0  0  0  0
   16.6000   51.8100   14.7980 N   0  0  0  0  0  0  0  0  0  0  0  0
   15.6290   51.7470   15.7840 C   0  0  0  0  0  0  0  0  0  0  0  0
   15.5950   50.5580   16.6890 C   0  0  0  0  0  0  0  0  0  0  0  0
   14.4230   50.2680   17.5190 C   0  0  0  0  0  0  0  0  0  0  0  0
   14.4230   49.1240   18.3960 C   0  0  0  0  0  0  0  0  0  0  0  0
   15.6000   48.2600   18.4460 C   0  0  0  0  0  0  0  0  0  0  0  0
   16.7470   48.5680   17.6080 C   0  0  0  0  0  0  0  0  0  0  0  0
   16.7510   49.6890   16.7480 C   0  0  0  0  0  0  0  0  0  0  0  0
   15.6960   47.0300   19.3680 C   0  0  0  0  0  0  0  0  0  0  0  0
   16.9170   46.9070   20.2190 N   0  0  0  0  0  0  0  0  0  0  0  0
   17.0970   48.1400   21.0700 C   0  0  0  0  0  0  0  0  0  0  0  0
   18.3750   48.0410   21.9490 C   0  0  0  0  0  0  0  0  0  0  0  0
   18.3370   46.7940   22.8210 N   0  0  0  0  0  0  0  0  0  0  0  0
   19.5220   46.6550   23.6800 C   0  0  0  0  0  0  0  0  0  0  0  0
   18.1720   45.5330   21.9710 C   0  0  0  0  0  0  0  0  0  0  0  0
   16.8770   45.6580   21.1040 C   0  0  0  0  0  0  0  0  0  0  0  0
   14.7890   52.6120   15.9830 O   0  0  0  0  0  0  0  0  0  0  0  0
   17.1480   55.4060   10.1540 C   0  0  0  0  0  0  0  0  0  0  0  0
   16.3560  100.4060   50.6140 C   0  0  0  0  0  0  0  0  0  0  0  0
   15.2180  100.0120   51.4140 C   0  0  0  0  0  0  0  0  0  0  0  0
   15.0890  100.4530   52.7980 C   0  0  0  0  0  0  0  0  0  0  0  0
   16.1380  101.2980   53.3390 C   0  0  0  0  0  0  0  0  0  0  0  0
   17.2200  101.6600   52.5430 N   0  0  0  0  0  0  0  0  0  0  0  0
   17.3560  101.2430   51.2150 C   0  0  0  0  0  0  0  0  0  0  0  0
   13.9280  100.0780   53.6730 C   0  0  0  0  0  0  0  0  0  0  0  0
   12.7230   99.4700   53.1730 C   0  0  0  0  0  0  0  0  0  0  0  0
   11.7040   99.1720   54.1140 C   0  0  0  0  0  0  0  0  0  0  0  0
   11.8810   99.4640   55.4560 N   0  0  0  0  0  0  0  0  0  0  0  0
   13.0530  100.0500   55.9070 C   0  0  0  0  0  0  0  0  0  0  0  0
   14.0460  100.3450   55.0230 N   0  0  0  0  0  0  0  0  0  0  0  0
   13.2630  100.3620   57.2530 N   0  0  0  0  0  0  0  0  0  0  0  0
   12.3020  100.1090   58.2460 C   0  0  0  0  0  0  0  0  0  0  0  0
   11.1950  101.0400   58.4880 C   0  0  0  0  0  0  0  0  0  0  0  0
   10.2510  100.7220   59.5240 C   0  0  0  0  0  0  0  0  0  0  0  0
   10.3860   99.5200   60.3090 C   0  0  0  0  0  0  0  0  0  0  0  0
   11.4560   98.6100   60.0860 C   0  0  0  0  0  0  0  0  0  0  0  0
   12.4240   98.9210   59.0320 C   0  0  0  0  0  0  0  0  0  0  0  0
   11.5160   97.4360   60.9230 N   0  0  0  0  0  0  0  0  0  0  0  0
   12.4460   96.4150   60.9100 C   0  0  0  0  0  0  0  0  0  0  0  0
   12.4720   95.4420   62.0420 C   0  0  0  0  0  0  0  0  0  0  0  0
   13.6890   94.6960   62.3640 C   0  0  0  0  0  0  0  0  0  0  0  0
   13.6820   93.7490   63.4490 C   0  0  0  0  0  0  0  0  0  0  0  0
   12.4630   93.5460   64.2140 C   0  0  0  0  0  0  0  0  0  0  0  0
   11.2740   94.3010   63.8790 C   0  0  0  0  0  0  0  0  0  0  0  0
   11.2720   95.2300   62.8170 C   0  0  0  0  0  0  0  0  0  0  0  0
   12.3710   92.5420   65.3680 C   0  0  0  0  0  0  0  0  0  0  0  0
   11.2300   91.5790   65.3640 N   0  0  0  0  0  0  0  0  0  0  0  0
   11.2140   90.7780   64.0930 C   0  0  0  0  0  0  0  0  0  0  0  0
   10.0310   89.7760   64.0670 C   0  0  0  0  0  0  0  0  0  0  0  0
   10.0810   88.8580   65.2780 N   0  0  0  0  0  0  0  0  0  0  0  0
    8.9850   87.8750   65.3060 C   0  0  0  0  0  0  0  0  0  0  0  0
   10.0700   89.6590   66.5720 C   0  0  0  0  0  0  0  0  0  0  0  0
   11.2730   90.6520   66.5740 C   0  0  0  0  0  0  0  0  0  0  0  0
   13.2580   96.2310   60.0240 O   0  0  0  0  0  0  0  0  0  0  0  0
   10.9860  102.3510   57.6940 C   0  0  0  0  0  0  0  0  0  0  0  0
  1  2  1  0
  1  6  1  0
  2  3  1  0
  3  4  1  0
  3  7  1  0
  4  5  1  0
  5  6  1  0
  7  8  1  0
  7 12  1  0
  8  9  1  0
  9 10  1  0
 10 11  1  0
 11 12  1  0
 11 13  1  0
 13 14  1  0
 14 15  1  0
 14 19  1  0
 15 16  1  0
 15 37  1  0
 16 17  1  0
 17 18  1  0
 18 19  1  0
 18 20  1  0
 20 21  1  0
 21 22  1  0
 21 36  1  0
 22 23  1  0
 22 27  1  0
 23 24  1  0
 24 25  1  0
 25 26  1  0
 25 28  1  0
 26 27  1  0
 28 29  1  0
 29 30  1  0
 29 35  1  0
 30 31  1  0
 31 32  1  0
 32 33  1  0
 32 34  1  0
 34 35  1  0
 38 39  1  0
 38 43  1  0
 39 40  1  0
 40 41  1  0
 40 44  1  0
 41 42  1  0
 42 43  1  0
 44 45  1  0
 44 49  1  0
 45 46  1  0
 46 47  1  0
 47 48  1  0
 48 49  1  0
 48 50  1  0
 50 51  1  0
 51 52  1  0
 51 56  1  0
 52 53  1  0
 52 74  1  0
 53 54  1  0
 54 55  1  0
 55 56  1  0
 55 57  1  0
 57 58  1  0
 58 59  1  0
 58 73  1  0
 59 60  1  0
 59 64  1  0
 60 61  1  0
 61 62  1  0
 62 63  1  0
 62 65  1  0
 63 64  1  0
 65 66  1  0
 66 67  1  0
 66 72  1  0
 67 68  1  0
 68 69  1  0
 69 70  1  0
 69 71  1  0
 71 72  1  0
M  END
$$$$
